gymnasium==0.29.1
mpi4py==3.1.5
numpy==1.26.4
openfast_toolbox @ git+https://github.com/OpenFAST/openfast_toolbox.git
pettingzoo==1.24.3
python-dotenv==1.0.1
PyYAML==6.0.1
